!!>>>>>>>>>>>>>>>>>>>>>>>>>>>>>>>>>>>>>>>>>>>>>>>>>>>>>>>>>>>>>>>>>>>>>>
!! NEMO/TOP1 :   - tracer run information                (namtrc_run)
!!               - tracer definition                     (namtrc    )
!!               - tracer data initialisation            (namtrc_dta)
!!               - tracer advection                      (namtrc_adv)
!!               - tracer lateral diffusion              (namtrc_ldf)
!!               - tracer vertical physics               (namtrc_zdf)
!!               - tracer newtonian damping              (namtrc_dmp)
!!               - dynamical tracer trends               (namtrc_trd)
!!               - tracer output diagonstics             (namtrc_dia)
!>>>>>>>>>>>>>>>>>>>>>>>>>>>>>>>>>>>>>>>>>>>>>>>>>>>>>>>>>>>>>>>>>>>>>>>
!-----------------------------------------------------------------------
&namtrc_run     !   run information
!-----------------------------------------------------------------------
   nn_dttrc      =  2        !  time step frequency for passive sn_tracers
   nn_writetrc   =  480      !  time step frequency for sn_tracer outputs
   ln_top_euler  = .true.    !  use Euler time-stepping for TOP
   ln_rsttr      = .{MOI_brest}.    !  start from a restart file (T) or not (F)
   nn_rsttr      =   0       !  restart control = 0 initial time step is not compared to the restart file value
   !                       !                  = 1 do not use the value in the restart file
   !                       !                  = 2 calendar parameters read in the restart file
   cn_trcrst_in  = "{MOI_ENSMEMBER}{MOI_system}_{MOI_rstnit_cyclem1}_restart_trc"   !  suffix of pass. sn_tracer restart name (input)
   cn_trcrst_indir = "{MOI_path_rst_cyclem1}"           !  directory from which to read input passive tracer restarts
   cn_trcrst_out = "restart_trc"   !  suffix of pass. sn_tracer restart name (output)
   cn_trcrst_outdir = "{MOI_dirout_restart}/M{MOI_ENSMEMBER}/"  !  directory to which to write output passive tracer restarts
/
!-----------------------------------------------------------------------
&namtrc     !   tracers definition
!-----------------------------------------------------------------------
!
!              !    name   !           title of the field              !   units    ! initial data ! save   !
!              !           !                                           !            ! from file    ! or not !
!              !           !                                           !            ! or not       !        !
   sn_tracer(1)   = 'DIC     ' , 'Dissolved Inorganic Carbon            ',  'mol-C/L'  ,  .true.  ,  .true.
   sn_tracer(2)   = 'Alkalini' , 'Total Alkalinity                      ',  'eq/L '    ,  .true.  ,  .true.
   sn_tracer(3)   = 'O2      ' , 'Dissolved Oxygen                      ',  'mol-O2/L' ,  .true.  ,  .true.
   sn_tracer(4)   = 'CaCO3   ' , 'Calcite                               ',  'mol-C/L'  ,  .true.  ,  .true.
   sn_tracer(5)   = 'PO4     ' , 'Phosphate                             ',  'mol-C/L'  ,  .true.  ,  .true.
   sn_tracer(6)   = 'POC     ' , 'Small Particulate Organic Carbon      ',  'mol-C/L'  ,  .true.  ,  .true.
   sn_tracer(7)   = 'Si      ' , 'Silicate                              ',  'mol-Si/L' ,  .true.  ,  .true.
   sn_tracer(8)   = 'PHY     ' , 'Nanophytoplankton                     ',  'mol-C/L'  ,  .true.  ,  .true.
   sn_tracer(9)   = 'ZOO     ' , 'Microzooplankton                      ',  'mol-C/L'  ,  .true.  ,  .true.
   sn_tracer(10)  = 'DOC     ' , 'Dissolved Organic Carbon              ',  'mol-C/L'  ,  .true.  ,  .true.
   sn_tracer(11)  = 'PHY2    ' , 'Diatoms                               ',  'mol-C/L'  ,  .true.  ,  .true.
   sn_tracer(12)  = 'ZOO2    ' , 'Mesozooplankton                       ',  'mol-C/L'  ,  .true.  ,  .true.
   sn_tracer(13)  = 'DSi     ' , 'Silicon content of the Diatoms        ',  'mol-Si/L' ,  .true.  ,  .true.
   sn_tracer(14)  = 'Fer     ' , 'Dissolved Iron                        ',  'mol-Fe/L' ,  .true.  ,  .true.
   sn_tracer(15)  = 'BFe     ' , 'Iron in the big particles             ',  'mol-Fe/L' ,  .true.  ,  .true.
   sn_tracer(16)  = 'GOC     ' , 'Big Particulate Organic Carbon        ',  'mol-C/L'  ,  .true.  ,  .true.
   sn_tracer(17)  = 'SFe     ' , 'Iron in the small particules          ',  'mol-Fe/L' ,  .true.  ,  .true.
   sn_tracer(18)  = 'DFe     ' , 'Iron content of the Diatoms           ',  'mol-Fe/L' ,  .true.  ,  .true.
   sn_tracer(19)  = 'GSi     ' , 'Sinking biogenic Silica               ',  'mol-Si/L' ,  .true.  ,  .true.
   sn_tracer(20)  = 'NFe     ' , 'Iron content of the Nanophytoplankton ',  'mol-Fe/L' ,  .true.  ,  .true.
   sn_tracer(21)  = 'NCHL    ' , 'Chlorophyl of the Nanophytoplanktonn  ',  'g-Chl/L'  ,  .true.  ,  .true.
   sn_tracer(22)  = 'DCHL    ' , 'Chlorophyl of the Diatoms             ',  'g-Chl/L'  ,  .true.  ,  .true.
   sn_tracer(23)  = 'NO3     ' , 'Nitrate                               ',  'mol-C/L'  ,  .true.  ,  .true.
   sn_tracer(24)  = 'NH4     ' , 'Ammonium                              ',  'mol-C/L'  ,  .true.  ,  .true.
   ln_trcdta     =  .true.   !  Initialisation from data input file (T) or not (F)
   ln_trcdmp     =  .false.  !  add a damping termn (T) or not (F)
   ln_trcdmp_clo =  .false.  !  damping term (T) or not (F) on closed seas
/
!-----------------------------------------------------------------------
&namtrc_dta      !    Initialisation from data input file
!-----------------------------------------------------------------------
!
!          !  file name  ! frequency (hours) ! variable  ! time interp. !  clim  ! 'yearly'/ ! weights  ! rotation ! land/sea mask !
!          !             !  (if <0  months)  !   name    !   (logical)  !  (T/F) ! 'monthly' ! filename ! pairing  ! filename      !
   sn_trcdta(1)  = 'BIOMER4V2R1_1mAV_2009-201808_dic_corr'  ,    -12  ,  'dic_corr_smooth'     , .false. , .true. , 'yearly'  , 'weights_bilinear_BIOMER_CI_NEATL36.nc' , ''  , ''
   sn_trcdta(2)  = 'BIOMER4V2R1_1mAV_2009-201808_alk_corr'  ,    -12  ,  'alk_corr_smooth'     , .false. , .true. , 'yearly'  , 'weights_bilinear_BIOMER_CI_NEATL36.nc' , ''  , ''
   sn_trcdta(3)  = 'BIOMER4V2R1_1mAV_2009-201808_o2'        ,    -12  ,  'o2'      , .false. , .true. , 'yearly'  , 'weights_bilinear_BIOMER_CI_NEATL36.nc' , ''  , ''
   sn_trcdta(4)  = 'BIOMER4V2R1_1mAV_2009-201808_caco3'     ,    -12  ,  'caco3'   , .false. , .true. , 'yearly'  , 'weights_bilinear_BIOMER_CI_NEATL36.nc' , ''  , ''
   sn_trcdta(5)  = 'BIOMER4V2R1_1mAV_2009-201808_po4'       ,    -12  ,  'po4'     , .false. , .true. , 'yearly'  , 'weights_bilinear_BIOMER_CI_NEATL36.nc' , ''  , ''
   sn_trcdta(6)  = 'BIOMER4V2R1_1mAV_2009-201808_poc'       ,    -12  ,  'poc'     , .false. , .true. , 'yearly'  , 'weights_bilinear_BIOMER_CI_NEATL36.nc' , ''  , ''
   sn_trcdta(7)  = 'BIOMER4V2R1_1mAV_2009-201808_si'        ,    -12  ,  'si'      , .false. , .true. , 'yearly'  , 'weights_bilinear_BIOMER_CI_NEATL36.nc' , ''  , ''
   sn_trcdta(8)  = 'BIOMER4V2R1_1mAV_2009-201808_phy'       ,    -12  ,  'phy'     , .false. , .true. , 'yearly'  , 'weights_bilinear_BIOMER_CI_NEATL36.nc' , ''  , ''
   sn_trcdta(9)  = 'BIOMER4V2R1_1mAV_2009-201808_zoo'       ,    -12  ,  'zoo'     , .false. , .true. , 'yearly'  , 'weights_bilinear_BIOMER_CI_NEATL36.nc' , ''  , ''
   sn_trcdta(10) = 'BIOMER4V2R1_1mAV_2009-201808_doc'       ,    -12  ,  'doc'     , .false. , .true. , 'yearly'  , 'weights_bilinear_BIOMER_CI_NEATL36.nc' , ''  , ''
   sn_trcdta(11) = 'BIOMER4V2R1_1mAV_2009-201808_phy2'      ,    -12  ,  'phy2'    , .false. , .true. , 'yearly'  , 'weights_bilinear_BIOMER_CI_NEATL36.nc' , ''  , ''
   sn_trcdta(12) = 'BIOMER4V2R1_1mAV_2009-201808_zoo2'      ,    -12  ,  'zoo2'    , .false. , .true. , 'yearly'  , 'weights_bilinear_BIOMER_CI_NEATL36.nc' , ''  , ''
   sn_trcdta(13) = 'BIOMER4V2R1_1mAV_2009-201808_dsi'       ,    -12  ,  'dsi'     , .false. , .true. , 'yearly'  , 'weights_bilinear_BIOMER_CI_NEATL36.nc' , ''  , ''
   sn_trcdta(14) = 'BIOMER4V2R1_1mAV_2009-201808_fe'        ,    -12  ,  'fe'      , .false. , .true. , 'yearly'  , 'weights_bilinear_BIOMER_CI_NEATL36.nc' , ''  , ''
   sn_trcdta(15) = 'BIOMER4V2R1_1mAV_2009-201808_bfe'       ,    -12  ,  'bfe'     , .false. , .true. , 'yearly'  , 'weights_bilinear_BIOMER_CI_NEATL36.nc' , ''  , ''
   sn_trcdta(16) = 'BIOMER4V2R1_1mAV_2009-201808_goc'       ,    -12  ,  'goc'     , .false. , .true. , 'yearly'  , 'weights_bilinear_BIOMER_CI_NEATL36.nc' , ''  , ''
   sn_trcdta(17) = 'BIOMER4V2R1_1mAV_2009-201808_sfe'       ,    -12  ,  'sfe'     , .false. , .true. , 'yearly'  , 'weights_bilinear_BIOMER_CI_NEATL36.nc' , ''  , ''
   sn_trcdta(18) = 'BIOMER4V2R1_1mAV_2009-201808_dfe'       ,    -12  ,  'dfe'     , .false. , .true. , 'yearly'  , 'weights_bilinear_BIOMER_CI_NEATL36.nc' , ''  , ''
   sn_trcdta(19) = 'BIOMER4V2R1_1mAV_2009-201808_gsi'       ,    -12  ,  'gsi'     , .false. , .true. , 'yearly'  , 'weights_bilinear_BIOMER_CI_NEATL36.nc' , ''  , ''
   sn_trcdta(20) = 'BIOMER4V2R1_1mAV_2009-201808_nfe'       ,    -12  ,  'nfe'     , .false. , .true. , 'yearly'  , 'weights_bilinear_BIOMER_CI_NEATL36.nc' , ''  , ''
   sn_trcdta(21) = 'BIOMER4V2R1_1mAV_2009-201808_nchl'      ,    -12  ,  'nchl'    , .false. , .true. , 'yearly'  , 'weights_bilinear_BIOMER_CI_NEATL36.nc' , ''  , ''
   sn_trcdta(22) = 'BIOMER4V2R1_1mAV_2009-201808_dchl'      ,    -12  ,  'dchl'    , .false. , .true. , 'yearly'  , 'weights_bilinear_BIOMER_CI_NEATL36.nc' , ''  , ''
   sn_trcdta(23) = 'BIOMER4V2R1_1mAV_2009-201808_no3'       ,    -12  ,  'no3'     , .false. , .true. , 'yearly'  , 'weights_bilinear_BIOMER_CI_NEATL36.nc' , ''  , ''
   sn_trcdta(24) = 'BIOMER4V2R1_1mAV_2009-201808_nh4'       ,    -12  ,  'nh4'     , .false. , .true. , 'yearly'  , 'weights_bilinear_BIOMER_CI_NEATL36.nc' , ''  , ''
   !
   cn_dir        =  '/scratch/work/levierb/IBI36/staticinput/ocean/BIOMER4V2R1_1mAV_2009-201808/'      !  root directory for the location of the data files
   rn_trfac(1)   =    1.e-6       !  multiplicative factor
   rn_trfac(2)   =    1.e-6       !  -      -      -     -
   rn_trfac(3)   =    1.e-6       !  -      -      -     -
   rn_trfac(4)   =    1.e-6       !  -      -      -     -
   rn_trfac(5)   =   122e-6       !  -      -      -     -
   rn_trfac(6)   =    1.e-6       !  -      -      -     -
   rn_trfac(7)   =    1.e-6       !  -      -      -     -
   rn_trfac(8)   =    1.e-6       !  -      -      -     -
   rn_trfac(9)   =    1.e-6       !  -      -      -     -
   rn_trfac(10)  =    1.e-6       !  -      -      -     -
   rn_trfac(11)  =    1.e-6       !  -      -      -     -
   rn_trfac(12)  =    1.e-6       !  -      -      -     -
   rn_trfac(13)  =    1.e-6       !  -      -      -     -
   rn_trfac(14)  =    1.e-6       !  -      -      -     -
   rn_trfac(15)  =    1.e-6       !  -      -      -     -
   rn_trfac(16)  =    1.e-6       !  -      -      -     -
   rn_trfac(17)  =    1.e-6       !  -      -      -     -
   rn_trfac(18)  =    1.e-6       !  -      -      -     -
   rn_trfac(19)  =    1.e-6       !  -      -      -     -
   rn_trfac(20)  =    1.e-6       !  -      -      -     -
   rn_trfac(21)  =    1.e-6       !  -      -      -     -
   rn_trfac(22)  =    1.e-6       !  -      -      -     -
   rn_trfac(23)  = 7.625e-6       !  -      -      -     -
   rn_trfac(24)  = 7.625e-6       !  -      -      -     -
/
!-----------------------------------------------------------------------
&namtrc_adv    !   advection scheme for passive tracer
!-----------------------------------------------------------------------
   ln_trcadv_cen2    =  .false.  !  2nd order centered scheme
   ln_trcadv_tvd     =  .false.  !  TVD scheme
   ln_trcadv_tvd_qck =  .true.   !  TVD QCK scheme
   ln_trcadv_muscl   =  .false.  !  MUSCL scheme
   ln_trcadv_muscl2  =  .false.  !  MUSCL2 scheme + cen2 at boundaries
   ln_trcadv_ubs     =  .false.  !  UBS scheme
   ln_trcadv_qck     =  .false.  !  QUICKEST scheme
   ln_trcadv_msc_ups =  .false.  !  use upstream scheme within muscl
/
!-----------------------------------------------------------------------
&namtrc_ldf    !   lateral diffusion scheme for passive tracer
!-----------------------------------------------------------------------
!                               !  Type of the operator :
   ln_trcldf_lap    =  .false.  !     laplacian operator
   ln_trcldf_bilap  =  .true.   !     bilaplacian operator
                                !  Direction of action  :
   ln_trcldf_level  =  .false.  !     iso-level
   ln_trcldf_hor    =  .true.   !     horizontal (geopotential)         (require "key_ldfslp" when ln_sco=T)
   ln_trcldf_iso    =  .false.  !     iso-neutral                       (require "key_ldfslp")
   !                            !  Coefficient
   rn_ahtrc_0       =   -2.5e7  !  horizontal eddy diffusivity for tracers [m2/s]
   rn_ahtrb_0       =     0.    !     background eddy diffusivity for ldf_iso [m2/s]
   rn_fact_lap      =     1.    !     enhanced zonal eddy diffusivity
/
!-----------------------------------------------------------------------
&namtrc_zdf        !   vertical physics
!-----------------------------------------------------------------------
   ln_trczdf_exp   =  .false.  !  split explicit (T) or implicit (F) time stepping
   nn_trczdf_exp   =   3       !  number of sub-timestep for ln_trczdfexp=T
/
!-----------------------------------------------------------------------
&namtrc_rad        !  treatment of negative concentrations
!-----------------------------------------------------------------------
   ln_trcrad   =  .true.  !  artificially correct negative concentrations (T) or not (F)
/
!-----------------------------------------------------------------------
&namtrc_dmp    !   passive tracer newtonian damping
!-----------------------------------------------------------------------
   nn_zdmp_tr  =    1      !  vertical   shape =0    damping throughout the water column
   !                       !                   =1 no damping in the mixing layer (kz  criteria)
   !                       !                   =2 no damping in the mixed  layer (rho crieria)
   cn_resto_tr  = 'resto_tr.nc'    !  create a damping.coeff NetCDF file (=1) or not (=0)
/
!-----------------------------------------------------------------------
&namtrc_ice       !    Representation of sea ice growth & melt effects
!-----------------------------------------------------------------------
   nn_ice_tr   =  -1       !  tracer concentration in sea ice
   !                       !    =-1 (no vvl: identical cc in ice and ocean / vvl: cc_ice = 0)
   !                       !    = 0 (no vvl: cc_ice = zero / vvl: cc_ice = )
   !                       !    = 1 prescribed to a namelist value (implemented in pisces only)
/
!-----------------------------------------------------------------------
&namtrc_trd       !   diagnostics on tracer trends        ('key_trdtrc')
!                          or mixed-layer trends          ('key_trdmld_trc')
!----------------------------------------------------------------------
   nn_trd_trc  =  5475      !  time step frequency and tracers trends
   nn_ctls_trc =   0        !  control surface type in mixed-layer trends (0,1 or n<jpk)
   rn_ucf_trc  =   1        !  unit conversion factor (=1 -> /seconds ; =86400. -> /day)
   ln_trdmld_trc_restart = .false.  !  restart for ML diagnostics
   ln_trdmld_trc_instant = .true.  !  flag to diagnose trends of instantantaneous or mean ML T/S
   ln_trdtrc(1)  =   .true.
   ln_trdtrc(2)  =   .true.
   ln_trdtrc(23) =   .true.
/
!-----------------------------------------------------------------------
&namtrc_dia       !   parameters for passive tracer additional diagnostics
!----------------------------------------------------------------------
   ln_diatrc     =  .true.   !  save additional diag. (T) or not (F)
   ln_diabio     =  .true.   !  output biological trends
   nn_writedia   =   480     !  time step frequency for diagnostics
   nn_writebio   =   480     !: frequency of biological outputs
/
!----------------------------------------------------------------------
! namtrc_bc       !   data for boundary conditions
!-----------------------------------------------------------------------
&namtrc_bc
!
   cn_dir        =  './'      !  root directory for the location of the data files
/
